\BOOKMARK [1][-]{section.1}{ Introduction}{}% 1
\BOOKMARK [2][-]{subsection.1.1}{ The WAVEWATCH III Modeling Framework}{section.1}% 2
\BOOKMARK [2][-]{subsection.1.2}{ About this manual}{section.1}% 3
\BOOKMARK [2][-]{subsection.1.3}{ Licensing terms}{section.1}% 4
\BOOKMARK [2][-]{subsection.1.4}{ Copyrights and trademarks}{section.1}% 5
\BOOKMARK [2][-]{subsection.1.5}{ The WAVEWATCH III\256 Development Group \(WW3DG\) }{section.1}% 6
\BOOKMARK [2][-]{subsection.1.6}{ Acknowledgments}{section.1}% 7
\BOOKMARK [1][-]{section.2}{ Governing equations}{}% 8
\BOOKMARK [2][-]{subsection.2.1}{ Introduction}{section.2}% 9
\BOOKMARK [2][-]{subsection.2.2}{ Propagation}{section.2}% 10
\BOOKMARK [2][-]{subsection.2.3}{ Source terms}{section.2}% 11
\BOOKMARK [3][-]{subsubsection.2.3.1}{ General concepts}{subsection.2.3}% 12
\BOOKMARK [3][-]{subsubsection.2.3.2}{ Snl: Discrete Interaction Approximation \(DIA\)}{subsection.2.3}% 13
\BOOKMARK [3][-]{subsubsection.2.3.3}{ Snl: Full Boltzmann Integral \(WRT\)}{subsection.2.3}% 14
\BOOKMARK [3][-]{subsubsection.2.3.4}{ Snl: Generalized Multiple DIA \(GMD\)}{subsection.2.3}% 15
\BOOKMARK [3][-]{subsubsection.2.3.5}{ Snl: Two-Scale Approximation \(TSA\)}{subsection.2.3}% 16
\BOOKMARK [3][-]{subsubsection.2.3.6}{ Snl: Nonlinear Filter}{subsection.2.3}% 17
\BOOKMARK [3][-]{subsubsection.2.3.7}{ Sin + Sds: WAM cycle 3}{subsection.2.3}% 18
\BOOKMARK [3][-]{subsubsection.2.3.8}{ Sin + Sds: Tolman and Chalikov 1996}{subsection.2.3}% 19
\BOOKMARK [3][-]{subsubsection.2.3.9}{ Sin + Sds: WAM cycle 4 \(ECWAM\)}{subsection.2.3}% 20
\BOOKMARK [3][-]{subsubsection.2.3.10}{ Sin + Sds: Ardhuin et al. 2010 ...}{subsection.2.3}% 21
\BOOKMARK [3][-]{subsubsection.2.3.11}{ Sin + Sds: Rogers et al. 2012 \046 Zieger et al. 2015}{subsection.2.3}% 22
\BOOKMARK [3][-]{subsubsection.2.3.12}{ Sln: Cavaleri and Malanotte-Rizzoli 1981}{subsection.2.3}% 23
\BOOKMARK [3][-]{subsubsection.2.3.13}{ Sbot: JONSWAP bottom friction}{subsection.2.3}% 24
\BOOKMARK [3][-]{subsubsection.2.3.14}{ Sbot: SHOWEX bottom friction}{subsection.2.3}% 25
\BOOKMARK [3][-]{subsubsection.2.3.15}{ Smud: Dissipation by viscous mud \(D\046L\)}{subsection.2.3}% 26
\BOOKMARK [3][-]{subsubsection.2.3.16}{ Smud: Dissipation by viscous mud \(Ng\)}{subsection.2.3}% 27
\BOOKMARK [3][-]{subsubsection.2.3.17}{ Sdb: Battjes and Janssen 1978}{subsection.2.3}% 28
\BOOKMARK [3][-]{subsubsection.2.3.18}{ Str: Triad nonlinear interactions \(LTA\)}{subsection.2.3}% 29
\BOOKMARK [3][-]{subsubsection.2.3.19}{ Sbs: Bottom scattering}{subsection.2.3}% 30
\BOOKMARK [3][-]{subsubsection.2.3.20}{ Suo: Unresolved Obstacles Source Term}{subsection.2.3}% 31
\BOOKMARK [3][-]{subsubsection.2.3.21}{ Sxx: User defined}{subsection.2.3}% 32
\BOOKMARK [2][-]{subsection.2.4}{ Source terms for wave-ice interactions}{section.2}% 33
\BOOKMARK [3][-]{subsubsection.2.4.1}{ Sice: Damping by sea ice \(simple\)}{subsection.2.4}% 34
\BOOKMARK [3][-]{subsubsection.2.4.2}{ Sice: Damping by sea ice \(Liu et al.\)}{subsection.2.4}% 35
\BOOKMARK [3][-]{subsubsection.2.4.3}{ Sice: Damping by sea ice \(Shen et al.\)}{subsection.2.4}% 36
\BOOKMARK [3][-]{subsubsection.2.4.4}{ Sice: Empirical/parametric damping by sea ice}{subsection.2.4}% 37
\BOOKMARK [3][-]{subsubsection.2.4.5}{ Sice: Damping by sea ice \(Mosig et al.\)}{subsection.2.4}% 38
\BOOKMARK [3][-]{subsubsection.2.4.6}{ Sis: Diffusive scattering by sea ice \(simple\)}{subsection.2.4}% 39
\BOOKMARK [3][-]{subsubsection.2.4.7}{ Sis: Floe-size dependent scattering and dissipation}{subsection.2.4}% 40
\BOOKMARK [3][-]{subsubsection.2.4.8}{ Sref: Energy reflection at shorelines and icebergs}{subsection.2.4}% 41
\BOOKMARK [3][-]{subsubsection.2.4.9}{ Second-order spectrum and free infragravity waves}{subsection.2.4}% 42
\BOOKMARK [2][-]{subsection.2.5}{ Air-sea processes}{section.2}% 43
\BOOKMARK [3][-]{subsubsection.2.5.1}{ General concepts}{subsection.2.5}% 44
\BOOKMARK [3][-]{subsubsection.2.5.2}{ Sea-state dependent : Reichl et al. 2014}{subsection.2.5}% 45
\BOOKMARK [3][-]{subsubsection.2.5.3}{ Sea-state dependent : Donelan et al. 2012}{subsection.2.5}% 46
\BOOKMARK [2][-]{subsection.2.6}{ Output parameters}{section.2}% 47
\BOOKMARK [2][-]{subsection.2.7}{ Derived parameters}{section.2}% 48
\BOOKMARK [3][-]{subsubsection.2.7.1}{Directional slopes and near-nadir backscatter}{subsection.2.7}% 49
\BOOKMARK [3][-]{subsubsection.2.7.2}{Stokes drift profile}{subsection.2.7}% 50
\BOOKMARK [1][-]{section.3}{ Numerical approaches}{}% 51
\BOOKMARK [2][-]{subsection.3.1}{ Spectral discretization}{section.3}% 52
\BOOKMARK [2][-]{subsection.3.2}{ Splitting of the wave action equation}{section.3}% 53
\BOOKMARK [2][-]{subsection.3.3}{ Depth variations in time}{section.3}% 54
\BOOKMARK [2][-]{subsection.3.4}{ Spatial propagation}{section.3}% 55
\BOOKMARK [3][-]{subsubsection.3.4.1}{ General concepts}{subsection.3.4}% 56
\BOOKMARK [3][-]{subsubsection.3.4.2}{ Traditional regular grids}{subsection.3.4}% 57
\BOOKMARK [3][-]{subsubsection.3.4.2}{ \040First-order scheme}{subsection.3.4}% 58
\BOOKMARK [3][-]{equation.3.9}{ \040Second-order scheme \(UNO\)}{subsection.3.4}% 59
\BOOKMARK [3][-]{equation.3.11}{ \040Third-order scheme \(UQ\)}{subsection.3.4}% 60
\BOOKMARK [3][-]{subsubsection.3.4.3}{ Curvilinear grids}{subsection.3.4}% 61
\BOOKMARK [3][-]{subsubsection.3.4.4}{ Triangular unstructured grids}{subsection.3.4}% 62
\BOOKMARK [3][-]{subsubsection.3.4.5}{ Spherical Multiple-Cell \(SMC\) grid}{subsection.3.4}% 63
\BOOKMARK [3][-]{subsubsection.3.4.6}{ The Garden Sprinkler Effect}{subsection.3.4}% 64
\BOOKMARK [3][-]{subsubsection.3.4.6}{ \040No GSE alleviation}{subsection.3.4}% 65
\BOOKMARK [3][-]{subsubsection.3.4.6}{ \040Booij and Holthuijsen 1987}{subsection.3.4}% 66
\BOOKMARK [3][-]{equation.3.41}{ \040Spatial averaging}{subsection.3.4}% 67
\BOOKMARK [3][-]{subsubsection.3.4.7}{ Unresolved obstacles}{subsection.3.4}% 68
\BOOKMARK [3][-]{subsubsection.3.4.8}{ Continuously moving grids}{subsection.3.4}% 69
\BOOKMARK [3][-]{subsubsection.3.4.8}{ \040General concepts}{subsection.3.4}% 70
\BOOKMARK [3][-]{subsubsection.3.4.9}{ Rotated grids}{subsection.3.4}% 71
\BOOKMARK [2][-]{subsection.3.5}{ Intra-spectral propagation}{section.3}% 72
\BOOKMARK [3][-]{subsubsection.3.5.1}{ General concepts}{subsection.3.5}% 73
\BOOKMARK [3][-]{subsubsection.3.5.2}{ First-order scheme}{subsection.3.5}% 74
\BOOKMARK [3][-]{subsubsection.3.5.3}{ Second-order scheme \(UNO\)}{subsection.3.5}% 75
\BOOKMARK [3][-]{subsubsection.3.5.4}{ Third-order scheme \(UQ\)}{subsection.3.5}% 76
\BOOKMARK [2][-]{subsection.3.6}{ Non-ice source term integration}{section.3}% 77
\BOOKMARK [2][-]{subsection.3.7}{ Ice source terms integration}{section.3}% 78
\BOOKMARK [2][-]{subsection.3.8}{ Simple ice blocking \(IC0\)}{section.3}% 79
\BOOKMARK [2][-]{subsection.3.9}{ Winds and currents}{section.3}% 80
\BOOKMARK [2][-]{subsection.3.10}{ Use of tidal analysis}{section.3}% 81
\BOOKMARK [2][-]{subsection.3.11}{ Wave crest and height space-time extremes}{section.3}% 82
\BOOKMARK [2][-]{subsection.3.12}{ Spectral partitioning}{section.3}% 83
\BOOKMARK [3][-]{subsubsection.3.12.1}{Topographic partitioning method}{subsection.3.12}% 84
\BOOKMARK [3][-]{subsubsection.3.12.2}{Sea/swell assignment and partitioning method}{subsection.3.12}% 85
\BOOKMARK [2][-]{subsection.3.13}{ Spatial and temporal tracking of wave systems}{section.3}% 86
\BOOKMARK [2][-]{subsection.3.14}{ Nesting}{section.3}% 87
\BOOKMARK [3][-]{subsubsection.3.14.1}{ Traditional one-way nesting}{subsection.3.14}% 88
\BOOKMARK [3][-]{subsubsection.3.14.2}{ Two-way nesting}{subsection.3.14}% 89
\BOOKMARK [1][-]{section.4}{ Wave Model Structure and Data Flow}{}% 90
\BOOKMARK [2][-]{subsection.4.1}{ Program design}{section.4}% 91
\BOOKMARK [2][-]{subsection.4.2}{ The wave model routines}{section.4}% 92
\BOOKMARK [2][-]{subsection.4.3}{ The data assimilation interface}{section.4}% 93
\BOOKMARK [2][-]{subsection.4.4}{ Auxiliary programs}{section.4}% 94
\BOOKMARK [3][-]{subsubsection.4.4.1}{General concepts}{subsection.4.4}% 95
\BOOKMARK [3][-]{subsubsection.4.4.2}{Configuration file}{subsection.4.4}% 96
\BOOKMARK [3][-]{subsubsection.4.4.3}{The grid preprocessor}{subsection.4.4}% 97
\BOOKMARK [3][-]{subsubsection.4.4.4}{The initial conditions program}{subsection.4.4}% 98
\BOOKMARK [3][-]{subsubsection.4.4.5}{The boundary conditions program}{subsection.4.4}% 99
\BOOKMARK [3][-]{subsubsection.4.4.6}{The NetCDF boundary conditions program}{subsection.4.4}% 100
\BOOKMARK [3][-]{subsubsection.4.4.7}{The input field preprocessor }{subsection.4.4}% 101
\BOOKMARK [3][-]{subsubsection.4.4.8}{The NetCDF input field preprocessor }{subsection.4.4}% 102
\BOOKMARK [3][-]{subsubsection.4.4.9}{The tide prediction program}{subsection.4.4}% 103
\BOOKMARK [3][-]{subsubsection.4.4.10}{The generic shell}{subsection.4.4}% 104
\BOOKMARK [3][-]{subsubsection.4.4.11}{Automated grid splitting for ww3\137multi \(ww3\137gspl\)}{subsection.4.4}% 105
\BOOKMARK [3][-]{subsubsection.4.4.12}{The multi-grid shell}{subsection.4.4}% 106
\BOOKMARK [3][-]{subsubsection.4.4.13}{Grid Integration}{subsection.4.4}% 107
\BOOKMARK [3][-]{subsubsection.4.4.14}{Gridded output post-processor}{subsection.4.4}% 108
\BOOKMARK [3][-]{subsubsection.4.4.15}{Gridded output NetCDF post-processor}{subsection.4.4}% 109
\BOOKMARK [3][-]{subsubsection.4.4.16}{Gridded output post-processor for GrADS}{subsection.4.4}% 110
\BOOKMARK [3][-]{subsubsection.4.4.17}{Gridded GRIB output post-processor}{subsection.4.4}% 111
\BOOKMARK [3][-]{subsubsection.4.4.18}{Point output post-processor}{subsection.4.4}% 112
\BOOKMARK [3][-]{subsubsection.4.4.19}{Point output NetCDF post-processor}{subsection.4.4}% 113
\BOOKMARK [3][-]{subsubsection.4.4.20}{Point output post-processor for GrADS}{subsection.4.4}% 114
\BOOKMARK [3][-]{subsubsection.4.4.21}{Track output post-processor}{subsection.4.4}% 115
\BOOKMARK [3][-]{subsubsection.4.4.22}{Track output NetCDF post-processor}{subsection.4.4}% 116
\BOOKMARK [3][-]{subsubsection.4.4.23}{Spatial and temporal tracking of wave systems}{subsection.4.4}% 117
\BOOKMARK [3][-]{subsubsection.4.4.24}{The Restart File Processor}{subsection.4.4}% 118
\BOOKMARK [1][-]{section.5}{ Install, Compile and Run the wave model}{}% 119
\BOOKMARK [2][-]{subsection.5.1}{ Introduction}{section.5}% 120
\BOOKMARK [2][-]{subsection.5.2}{ Distribution}{section.5}% 121
\BOOKMARK [2][-]{subsection.5.3}{ Installing}{section.5}% 122
\BOOKMARK [2][-]{subsection.5.4}{ Setting up}{section.5}% 123
\BOOKMARK [2][-]{subsection.5.5}{ Directory Structure}{section.5}% 124
\BOOKMARK [2][-]{subsection.5.6}{ Optional environment settings}{section.5}% 125
\BOOKMARK [2][-]{subsection.5.7}{ Compiling and linking}{section.5}% 126
\BOOKMARK [2][-]{subsection.5.8}{ Detailled compilation}{section.5}% 127
\BOOKMARK [2][-]{subsection.5.9}{ Selecting model options}{section.5}% 128
\BOOKMARK [3][-]{subsubsection.5.9.1}{ Mandatory switches}{subsection.5.9}% 129
\BOOKMARK [3][-]{subsubsection.5.9.2}{ Optional switches}{subsection.5.9}% 130
\BOOKMARK [3][-]{subsubsection.5.9.3}{ Default model settings}{subsection.5.9}% 131
\BOOKMARK [2][-]{subsection.5.10}{ Modifying the source code}{section.5}% 132
\BOOKMARK [2][-]{subsection.5.11}{ Running test cases}{section.5}% 133
\BOOKMARK [1][-]{section.6}{ System documentation}{}% 134
\BOOKMARK [2][-]{subsection.6.1}{ Introduction}{section.6}% 135
\BOOKMARK [2][-]{subsection.6.2}{ The preprocessor}{section.6}% 136
\BOOKMARK [2][-]{subsection.6.3}{ Program files}{section.6}% 137
\BOOKMARK [3][-]{subsubsection.6.3.1}{ Wave model modules}{subsection.6.3}% 138
\BOOKMARK [3][-]{subsubsection.6.3.2}{ Multi-grid modules}{subsection.6.3}% 139
\BOOKMARK [3][-]{subsubsection.6.3.3}{ Data assimilation module}{subsection.6.3}% 140
\BOOKMARK [3][-]{subsubsection.6.3.4}{ Auxiliary programs}{subsection.6.3}% 141
\BOOKMARK [2][-]{subsection.6.4}{ Optimization}{section.6}% 142
\BOOKMARK [2][-]{subsection.6.5}{ Internal data storage}{section.6}% 143
\BOOKMARK [3][-]{subsubsection.6.5.1}{ Grids}{subsection.6.5}% 144
\BOOKMARK [3][-]{subsubsection.6.5.2}{ Distributed memory concepts.}{subsection.6.5}% 145
\BOOKMARK [3][-]{subsubsection.6.5.3}{ Multiple grids}{subsection.6.5}% 146
\BOOKMARK [2][-]{subsection.6.6}{ Variables in modules}{section.6}% 147
\BOOKMARK [3][-]{subsubsection.6.6.1}{ Parameter settings in modules}{subsection.6.6}% 148
\BOOKMARK [3][-]{subsubsection.6.6.2}{ Data structures}{subsection.6.6}% 149
\BOOKMARK [1][-]{section*.64}{References}{}% 150
\BOOKMARK [1][-]{appendix.A}{ Setting model time steps}{}% 151
\BOOKMARK [2][-]{subsection.A.1}{ Individual grids}{appendix.A}% 152
\BOOKMARK [2][-]{subsection.A.2}{ Mosaics of grids}{appendix.A}% 153
\BOOKMARK [1][-]{appendix.B}{ Setting up nested runs}{}% 154
\BOOKMARK [2][-]{subsection.B.1}{ Using ww3\137shel}{appendix.B}% 155
\BOOKMARK [2][-]{subsection.B.2}{ Using ww3\137bound and/or unstructured grids}{appendix.B}% 156
\BOOKMARK [2][-]{subsection.B.3}{ Using ww3\137multi}{appendix.B}% 157
\BOOKMARK [1][-]{appendix.C}{ Setting up for distributed machines \(MPI\)}{}% 158
\BOOKMARK [2][-]{subsection.C.1}{ Model setup}{appendix.C}% 159
\BOOKMARK [2][-]{subsection.C.2}{ Common errors}{appendix.C}% 160
\BOOKMARK [2][-]{subsection.C.3}{ MPI point-to-point communication errors}{appendix.C}% 161
\BOOKMARK [1][-]{appendix.D}{ Mosaic approach with non-regular grids}{}% 162
\BOOKMARK [2][-]{subsection.D.1}{ Introduction}{appendix.D}% 163
\BOOKMARK [2][-]{subsection.D.2}{ SCRIP-WW3}{appendix.D}% 164
\BOOKMARK [2][-]{subsection.D.3}{ SCRIP Operation}{appendix.D}% 165
\BOOKMARK [2][-]{subsection.D.4}{ Optimization and common problems}{appendix.D}% 166
\BOOKMARK [2][-]{subsection.D.5}{ Limitations}{appendix.D}% 167
\BOOKMARK [1][-]{appendix.E}{ Ocean-Ice-Waves-Atmosphere coupling with OASIS}{}% 168
\BOOKMARK [2][-]{subsection.E.1}{ Introduction}{appendix.E}% 169
\BOOKMARK [2][-]{subsection.E.2}{ Interfacing with OASIS3-MCT}{appendix.E}% 170
\BOOKMARK [2][-]{subsection.E.3}{ Compiling with OASIS3-MCT}{appendix.E}% 171
\BOOKMARK [2][-]{subsection.E.4}{ Launch a coupling simulation}{appendix.E}% 172
\BOOKMARK [2][-]{subsection.E.5}{ Limitations}{appendix.E}% 173
\BOOKMARK [1][-]{appendix.F}{ Coupling with NUOPC}{}% 174
\BOOKMARK [2][-]{subsection.F.1}{ Introduction}{appendix.F}% 175
\BOOKMARK [2][-]{subsection.F.2}{ Building and Installing the NUOPC Cap}{appendix.F}% 176
\BOOKMARK [2][-]{subsection.F.3}{ Import/Export Fields in the NUOPC Cap}{appendix.F}% 177
\BOOKMARK [2][-]{subsection.F.4}{ Configuration of Input Files for the NUOPC Cap}{appendix.F}% 178
\BOOKMARK [2][-]{subsection.F.5}{ Running the NUOPC Cap}{appendix.F}% 179
\BOOKMARK [1][-]{appendix.G}{ Configuration of Input Files}{}% 180
\BOOKMARK [2][-]{subsection.G.1}{ ww3\137grid}{appendix.G}% 181
\BOOKMARK [3][-]{subsubsection.G.1.1}{ ww3\137grid.inp}{subsection.G.1}% 182
\BOOKMARK [3][-]{subsubsection.G.1.2}{ ww3\137grid.nml}{subsection.G.1}% 183
\BOOKMARK [2][-]{subsection.G.2}{ ww3\137strt}{appendix.G}% 184
\BOOKMARK [3][-]{subsubsection.G.2.1}{ ww3\137strt.inp}{subsection.G.2}% 185
\BOOKMARK [2][-]{subsection.G.3}{ ww3\137bound}{appendix.G}% 186
\BOOKMARK [3][-]{subsubsection.G.3.1}{ ww3\137bound.inp}{subsection.G.3}% 187
\BOOKMARK [2][-]{subsection.G.4}{ ww3\137bounc}{appendix.G}% 188
\BOOKMARK [3][-]{subsubsection.G.4.1}{ ww3\137bounc.inp}{subsection.G.4}% 189
\BOOKMARK [3][-]{subsubsection.G.4.2}{ ww3\137bounc.nml}{subsection.G.4}% 190
\BOOKMARK [2][-]{subsection.G.5}{ ww3\137prep}{appendix.G}% 191
\BOOKMARK [3][-]{subsubsection.G.5.1}{ ww3\137prep.inp}{subsection.G.5}% 192
\BOOKMARK [2][-]{subsection.G.6}{ ww3\137prnc}{appendix.G}% 193
\BOOKMARK [3][-]{subsubsection.G.6.1}{ ww3\137prnc.inp}{subsection.G.6}% 194
\BOOKMARK [3][-]{subsubsection.G.6.2}{ ww3\137prnc.nml}{subsection.G.6}% 195
\BOOKMARK [2][-]{subsection.G.7}{ ww3\137prtide}{appendix.G}% 196
\BOOKMARK [3][-]{subsubsection.G.7.1}{ ww3\137prtide.inp}{subsection.G.7}% 197
\BOOKMARK [2][-]{subsection.G.8}{ ww3\137shel}{appendix.G}% 198
\BOOKMARK [3][-]{subsubsection.G.8.1}{ ww3\137shel.inp}{subsection.G.8}% 199
\BOOKMARK [3][-]{subsubsection.G.8.2}{ ww3\137shel.nml}{subsection.G.8}% 200
\BOOKMARK [2][-]{subsection.G.9}{ ww3\137gspl}{appendix.G}% 201
\BOOKMARK [3][-]{subsubsection.G.9.1}{ ww3\137gspl.inp}{subsection.G.9}% 202
\BOOKMARK [2][-]{subsection.G.10}{ ww3\137multi}{appendix.G}% 203
\BOOKMARK [3][-]{subsubsection.G.10.1}{ ww3\137multi.inp}{subsection.G.10}% 204
\BOOKMARK [3][-]{subsubsection.G.10.2}{ ww3\137multi.nml}{subsection.G.10}% 205
\BOOKMARK [2][-]{subsection.G.11}{ ww3\137gint}{appendix.G}% 206
\BOOKMARK [3][-]{subsubsection.G.11.1}{ ww3\137gint.inp}{subsection.G.11}% 207
\BOOKMARK [2][-]{subsection.G.12}{ ww3\137outf}{appendix.G}% 208
\BOOKMARK [3][-]{subsubsection.G.12.1}{ ww3\137outf.inp}{subsection.G.12}% 209
\BOOKMARK [2][-]{subsection.G.13}{ ww3\137ounf}{appendix.G}% 210
\BOOKMARK [3][-]{subsubsection.G.13.1}{ ww3\137ounf.inp}{subsection.G.13}% 211
\BOOKMARK [3][-]{subsubsection.G.13.2}{ ww3\137ounf.nml}{subsection.G.13}% 212
\BOOKMARK [2][-]{subsection.G.14}{ gx\137outf}{appendix.G}% 213
\BOOKMARK [3][-]{subsubsection.G.14.1}{ gx\137outf.inp}{subsection.G.14}% 214
\BOOKMARK [2][-]{subsection.G.15}{ ww3\137grib}{appendix.G}% 215
\BOOKMARK [3][-]{subsubsection.G.15.1}{ ww3\137grib.inp}{subsection.G.15}% 216
\BOOKMARK [2][-]{subsection.G.16}{ ww3\137outp}{appendix.G}% 217
\BOOKMARK [3][-]{subsubsection.G.16.1}{ ww3\137outp.inp}{subsection.G.16}% 218
\BOOKMARK [2][-]{subsection.G.17}{ ww3\137ounp}{appendix.G}% 219
\BOOKMARK [3][-]{subsubsection.G.17.1}{ ww3\137ounp.inp}{subsection.G.17}% 220
\BOOKMARK [3][-]{subsubsection.G.17.2}{ ww3\137ounp.nml}{subsection.G.17}% 221
\BOOKMARK [2][-]{subsection.G.18}{ gx\137outp}{appendix.G}% 222
\BOOKMARK [3][-]{subsubsection.G.18.1}{ gx\137outp.inp}{subsection.G.18}% 223
\BOOKMARK [2][-]{subsection.G.19}{ ww3\137trck}{appendix.G}% 224
\BOOKMARK [3][-]{subsubsection.G.19.1}{ ww3\137trck.inp}{subsection.G.19}% 225
\BOOKMARK [2][-]{subsection.G.20}{ ww3\137trnc}{appendix.G}% 226
\BOOKMARK [3][-]{subsubsection.G.20.1}{ ww3\137trnc.inp}{subsection.G.20}% 227
\BOOKMARK [3][-]{subsubsection.G.20.2}{ ww3\137trnc.nml}{subsection.G.20}% 228
\BOOKMARK [2][-]{subsection.G.21}{ ww3\137systrk}{appendix.G}% 229
\BOOKMARK [3][-]{subsubsection.G.21.1}{ ww3\137systrk.inp}{subsection.G.21}% 230
\BOOKMARK [2][-]{subsection.G.22}{ ww3\137uprstr}{appendix.G}% 231
\BOOKMARK [3][-]{subsubsection.G.22.1}{ ww3\137uprstr.inp}{subsection.G.22}% 232
